Circuit: * C:\users\vero\Mis Documentos\ADC\tp\CIRCUITO_TP_respuesta_escalon.asc

Direct Newton iteration failed to find .op point.  (Use ".option noopiter" to skip.)
Starting Gmin stepping
Gmin = 10
vernier = 0.5
vernier = 0.25
vernier = 0.125
Gmin = 5.5165
vernier = 0.0625
vernier = 0.03125
vernier = 0.015625
vernier = 0.0078125
Gmin = 5.49501
vernier = 0.00390625
vernier = 0.00195313
vernier = 0.000976563
vernier = 0.000488281
Gmin = 5.50104
Gmin = 0
Gmin stepping failed

Starting source stepping with srcstepmethod=0
Source Step = 3.0303%
Source Step = 33.3333%
Source Step = 63.6364%
Source Step = 93.9394%
Source stepping succeeded in finding the operating point.


Date: Mon Jun 10 20:11:46 2019
Total elapsed time: 0.206 seconds.

tnom = 27
temp = 27
method = modified trap
totiter = 3916
traniter = 2234
tranpoints = 1118
accept = 1110
rejected = 8
matrix size = 30
fillins = 52
solver = Normal
Matrix Compiler1: 3.64 KB object code size  2.2/1.4/[1.1]
Matrix Compiler2: 3.40 KB object code size  1.6/2.0/[1.5]

